/*--------------------------------*- C++ -*----------------------------------*\
| =========                 |                                                 |
| \\      /  F ield         | foam-extend: Open Source CFD                    |
|  \\    /   O peration     | Version:     4.0                                |
|   \\  /    A nd           | Web:         http://www.foam-extend.org         |
|    \\/     M anipulation  |                                                 |
\*---------------------------------------------------------------------------*/
FoamFile
{
    version     2.0;
    format      ascii;
    class       dictionary;
    object      blockMeshDict;
}
// * * * * * * * * * * * * * * * * * * * * * * * * * * * * * * * * * * * * * //

convertToMeters 1;

vertices
(
    (0 0 0)
    (5.5 0 0)
    (5.5 0.0305 0)
    (0 0.0305 0)
    (0 0 0.001)
    (5.5 0 0.001)
    (5.5 0.0305 0.001)
    (0 0.0305 0.001)
);

blocks
(
    hex (0 1 2 3 4 5 6 7) (50 20 1) simpleGrading (1 1 1)
);

edges
(
);

patches
(
    patch inlet 
    (
        (0 4 7 3)
    )
    patch outlet
    ( 
        (2 6 5 1)
    )
	wall wall
	(
        (1 5 4 0)
        (3 7 6 2)
	)

    empty frontAndBack
    (
        (0 3 2 1)
        (4 5 6 7)
    )
);

mergePatchPairs
(
);


// ************************************************************************* //
