/*--------------------------------*- C++ -*----------------------------------*\
| =========                 |                                                 |
| \\      /  F ield         | OpenFOAM: The Open Source CFD Toolbox           |
|  \\    /   O peration     | Version:  2.2.2                                 |
|   \\  /    A nd           | Web:      www.OpenFOAM.org                      |
|    \\/     M anipulation  |                                                 |
\*---------------------------------------------------------------------------*/
FoamFile
{
    version     2.0;
    format      ascii;
    class       dictionary;
    location    "constant";
    object      kineticTheoryProperties;
}
// * * * * * * * * * * * * * * * * * * * * * * * * * * * * * * * * * * * * * //

kineticTheory   on;

e               e [ 0 0 0 0 0 0 0 ] 1;

alphaMax        alphaMax [ 0 0 0 0 0 0 0 ] 0.6;

viscosityModel  Syamlal;

conductivityModel Syamlal;

granularPressureModel Lun;

radialModel     SinclairJackson;

HrenyaSinclairCoeffs
{
    L               L [ 0 1 0 0 0 0 0 ] 0.0005;
}

// ************************************************************************* //
