/*--------------------------------*- C++ -*----------------------------------*\
| =========                 |                                                 |
| \\      /  F ield         | OpenFOAM: The Open Source CFD Toolbox           |
|  \\    /   O peration     | Version:  2.2.2                                 |
|   \\  /    A nd           | Web:      www.OpenFOAM.org                      |
|    \\/     M anipulation  |                                                 |
\*---------------------------------------------------------------------------*/
FoamFile
{
    version     2.0;
    format      ascii;
    class       dictionary;
    location    "constant";
    object      transportProperties;
}
// * * * * * * * * * * * * * * * * * * * * * * * * * * * * * * * * * * * * * //

phase1
{
    rho             rho [ 1 -3 0 0 0 0 0 ] 8800;
    nu              nu [ 0 2 -1 0 0 0 0 ] 15.11e-6;
    d               d [ 0 1 0 0 0 0 0] 70e-6; 
}

phase2
{
    rho             rho [ 1 -3 0 0 0 0 0 ] 1.28;
    nu              nu [ 0 2 -1 0 0 0 0 ] 15.11e-6;
    d               d [ 0 1 0 0 0 0 0] 1;
}

// particle properties 
preAlphaExp      500;

expMax           1000;

alphaMax         0.6;

g0              g0 [ 1 -1 -2 0 0  ] 1000;

transportModel  Newtonian;

nu              nu [0 2 -1 0 0]  15.7e-6;


// ************************************************************************* //
