/*--------------------------------*- C++ -*----------------------------------*\
| =========                 |                                                 |
| \\      /  F ield         | foam-extend: Open Source CFD                    |
|  \\    /   O peration     | Version:     4.0                                |
|   \\  /    A nd           | Web:         http://www.foam-extend.org         |
|    \\/     M anipulation  |                                                 |
\*---------------------------------------------------------------------------*/
FoamFile
{
    version     2.0;
    format      binary;
    class       polyBoundaryMesh;
    location    "constant/polyMesh";
    object      boundary;
}
// * * * * * * * * * * * * * * * * * * * * * * * * * * * * * * * * * * * * * //

5
(
    frontAndBackFaces
    {
        type            empty;
        nFaces          19422;
        startFace       19134;
    }
    inlet
    {
        type            patch;
        nFaces          39;
        startFace       38556;
    }
    lowerWall
    {
        type            wall;
        nFaces          249;
        startFace       38595;
    }
    outlet
    {
        type            patch;
        nFaces          39;
        startFace       38844;
    }
    upperWall
    {
        type            wall;
        nFaces          249;
        startFace       38883;
    }
)


// ************************************************************************* //
